Andika/MatLab/hw2-Fast-decoupled.txt
                   Power Flow Solution by Fast Decoupled Method
                      Maximum Power Mismatch = 8.40013e-05 
                             No. of Iterations = 26 

    Bus  Voltage  Angle    ------Load------    ---Generation---   Injected
    No.  Mag.     Degree     MW       Mvar       MW       Mvar       Mvar 
                                                                          
     1   1.025    0.000    51.000    41.000   719.534   224.009     4.000
     2   1.020   -0.931    22.000    15.000    79.000   125.355     0.000
     3   1.035   -4.213    64.000    50.000    20.000    63.031     0.000
     4   1.050   -3.582    25.000    10.000   100.000    49.223     2.000
     5   1.045    1.129    50.000    30.000   300.000   124.466     5.000
     6   0.999   -2.573    76.000    29.000     0.000     0.000     2.000
     7   0.994   -3.204     0.000     0.000     0.000     0.000     0.000
     8   0.997   -3.299     0.000     0.000     0.000     0.000     0.000
     9   1.009   -5.393    89.000    50.000     0.000     0.000     3.000
    10   0.989   -5.561     0.000     0.000     0.000     0.000     0.000
    11   0.997   -3.218    25.000    15.000     0.000     0.000     1.500
    12   0.993   -4.692    89.000    48.000     0.000     0.000     2.000
    13   1.014   -4.430    31.000    15.000     0.000     0.000     0.000
    14   1.000   -5.040    24.000    12.000     0.000     0.000     0.000
    15   0.991   -5.538    70.000    31.000     0.000     0.000     0.500
    16   0.983   -5.882    55.000    27.000     0.000     0.000     0.000
    17   0.987   -4.985    78.000    38.000     0.000     0.000     0.000
    18   1.007   -1.866   153.000    67.000     0.000     0.000     0.000
    19   1.004   -6.397    75.000    15.000     0.000     0.000     5.000
    20   0.980   -6.025    48.000    27.000     0.000     0.000     0.000
    21   0.977   -5.778    46.000    23.000     0.000     0.000     0.000
    22   0.978   -6.437    45.000    22.000     0.000     0.000     0.000
    23   0.976   -7.087    25.000    12.000     0.000     0.000     0.000
    24   0.968   -7.347    54.000    27.000     0.000     0.000     0.000
    25   0.974   -6.775    28.000    13.000     0.000     0.000     0.000
    26   1.015   -1.803    40.000    20.000    60.000    32.706     0.000
      
    Total                1263.000   637.000  1278.534   618.791    25.000


                           Line Flow and Losses 

     --Line--  Power at bus & line flow    --Line loss--  Transformer
     from  to    MW      Mvar     MVA       MW      Mvar      tap
   
     1        668.534  187.009  694.197
           2  361.714   65.048  367.516    0.709   -0.083
          18  306.821  121.962  330.172    1.368   -0.286
   
     2         57.000  110.355  124.206
           1 -361.004  -65.131  366.833    0.709   -0.083
           3  124.327   51.289  134.491    0.242   -2.504    0.960
           7   74.569   32.038   81.160    0.664    0.129
           8  140.946   39.740  146.441    1.549   -1.212
          13   69.940   50.451   86.238    0.244    1.231    0.960
          26    8.222    1.304    8.325    0.022    0.131
   
     3        -44.000   13.031   45.889
           2 -124.085  -53.792  135.243    0.242   -2.504
          13   80.086   66.826  104.304    0.074    0.473    1.017
   
     4         75.000   41.223   85.582
           8  -20.093   13.869   24.415    0.005    0.123    1.050
          12   95.094   27.509   98.993    0.158   -0.932    1.050
   
     5        250.000   99.466  269.060
           6  250.000   99.466  269.060    4.717   -0.179
   
     6        -76.000  -27.000   80.654
           5 -245.283  -99.645  264.750    4.717   -0.179
           7   37.578   10.327   38.972    0.082    0.258
          11   19.686    0.003   19.686    0.038    0.201
          18  -60.444  -27.091   66.238    0.164    0.733
          19  110.579   68.876  130.276    0.560    1.046    0.950
          21   61.883   20.045   65.048    0.217   -0.511
   
     7          0.000    0.000    0.000
           2  -73.904  -31.908   80.499    0.664    0.129
           6  -37.497  -10.069   38.825    0.082    0.258
           8   15.464  -46.719   49.212    0.029    0.150
           9   95.937   88.430  130.475    0.152    1.588    0.950
   
     8          0.000    0.000    0.000
           2 -139.397  -40.952  145.288    1.549   -1.212
           4   20.098  -13.746   24.349    0.005    0.123
           7  -15.434   46.869   49.345    0.029    0.150
          12  134.733    7.829  134.960    0.367   -0.652
   
     9        -89.000  -47.000  100.648
           7  -95.785  -86.842  129.292    0.152    1.588
          10    6.785   39.842   40.415    0.017    0.596
   
    10          0.000    0.000    0.000
           9   -6.769  -39.246   39.825    0.017    0.596
          12 -113.903   -6.527  114.090    0.328   -0.208
          19    4.477   -7.167    8.450    0.040    0.172
          20   60.732   28.213   66.966    0.303    0.541
          22   55.462   24.726   60.724    0.262    0.164
   
    11        -25.000  -13.500   28.412
           6  -19.648    0.199   19.649    0.038    0.201
          25   22.689    0.049   22.689    0.498   -0.542
          26  -28.040  -13.748   31.229    0.160    0.131
   
    12        -89.000  -46.000  100.185
           4  -94.935  -28.441   99.104    0.158   -0.932
           8 -134.366   -8.481  134.633    0.367   -0.652
          10  114.231    6.318  114.406    0.328   -0.208
          14    3.182  -10.651   11.116    0.041    0.101
          15   22.888   -4.744   23.375    0.100    0.332
   
    13        -31.000  -15.000   34.438
           2  -69.696  -49.221   85.324    0.244    1.231
           3  -80.012  -66.353  103.945    0.074    0.473
          14   46.932   41.955   62.951    0.178    0.845
          15   37.527   29.857   47.956    0.260    1.366
          16   34.248   28.762   44.723    0.350    1.535
   
    14        -24.000  -12.000   26.833
          12   -3.141   10.752   11.201    0.041    0.101
          13  -46.754  -41.110   62.258    0.178    0.845
          15   25.895   18.358   31.742    0.069    0.385
   
    15        -70.000  -30.500   76.356
          12  -22.788    5.076   23.347    0.100    0.332
          13  -37.268  -28.491   46.911    0.260    1.366
          14  -25.825  -17.974   31.464    0.069    0.385
          16   15.881   10.889   19.256    0.079    0.193
   
    16        -55.000  -27.000   61.270
          13  -33.898  -27.227   43.479    0.350    1.535
          15  -15.802  -10.696   19.082    0.079    0.193
          17  -10.082    9.232   13.670    0.192    0.116
          20    4.782    1.686    5.071    0.006    0.016
   
    17        -78.000  -38.000   86.764
          16   10.273   -9.116   13.735    0.192    0.116
          18  -91.547  -29.415   96.156    0.297   -1.991
          21    3.273    0.534    3.317    0.026    0.050
   
    18       -153.000  -67.000  167.027
           1 -305.452 -122.247  329.007    1.368   -0.286
           6   60.608   27.825   66.690    0.164    0.733
          17   91.844   27.423   95.851    0.297   -1.991
   
    19        -75.000  -10.000   75.664
           6 -110.020  -67.830  129.249    0.560    1.046
          10   -4.437    7.339    8.576    0.040    0.172
          23   13.111   17.902   22.190    0.147    0.640
          24   18.677   23.909   30.340    0.277    0.765
          25    7.669    8.680   11.582    0.167   -0.467
   
    20        -48.000  -27.000   55.073
          10  -60.429  -27.673   66.464    0.303    0.541
          16   -4.776   -1.670    5.059    0.006    0.016
          21   -1.549    2.590    3.018    0.006    0.015
          22   18.754   -0.247   18.756    0.055    0.134
   
    21        -46.000  -23.000   51.430
           6  -61.666  -20.556   65.002    0.217   -0.511
          17   -3.248   -0.484    3.283    0.026    0.050
          20    1.555   -2.575    3.008    0.006    0.015
          24   17.359    0.615   17.370    0.150    0.477
   
    22        -45.000  -22.000   50.090
          10  -55.200  -24.562   60.418    0.262    0.164
          20  -18.699    0.381   18.703    0.055    0.134
          23   10.391   -1.868   10.558    0.034    0.115
          24   18.508    4.049   18.945    0.116    0.330
   
    23        -25.000  -12.000   27.731
          19  -12.964  -17.262   21.588    0.147    0.640
          22  -10.357    1.984   10.546    0.034    0.115
          25   -1.678    3.278    3.683    0.014    0.017
   
    24        -54.000  -27.000   60.374
          19  -18.400  -23.144   29.567    0.277    0.765
          21  -17.208   -0.138   17.209    0.150    0.477
          22  -18.391   -3.718   18.763    0.116    0.330
   
    25        -28.000  -13.000   30.871
          11  -22.191   -0.591   22.198    0.498   -0.542
          19   -7.502   -9.147   11.830    0.167   -0.467
          23    1.692   -3.261    3.674    0.014    0.017
   
    26         20.000   12.706   23.695
           2   -8.201   -1.173    8.284    0.022    0.131
          11   28.201   13.879   31.431    0.160    0.131
   
    Total loss                            15.534    5.532
                   Power Flow Solution by Fast Decoupled Method
                      Maximum Power Mismatch = 8.40013e-05 
                             No. of Iterations = 26 

    Bus  Voltage  Angle    ------Load------    ---Generation---   Injected
    No.  Mag.     Degree     MW       Mvar       MW       Mvar       Mvar 
                                                                          
     1   1.025    0.000    51.000    41.000   719.534   224.009     4.000
     2   1.020   -0.931    22.000    15.000    79.000   125.355     0.000
     3   1.035   -4.213    64.000    50.000    20.000    63.031     0.000
     4   1.050   -3.582    25.000    10.000   100.000    49.223     2.000
     5   1.045    1.129    50.000    30.000   300.000   124.466     5.000
     6   0.999   -2.573    76.000    29.000     0.000     0.000     2.000
     7   0.994   -3.204     0.000     0.000     0.000     0.000     0.000
     8   0.997   -3.299     0.000     0.000     0.000     0.000     0.000
     9   1.009   -5.393    89.000    50.000     0.000     0.000     3.000
    10   0.989   -5.561     0.000     0.000     0.000     0.000     0.000
    11   0.997   -3.218    25.000    15.000     0.000     0.000     1.500
    12   0.993   -4.692    89.000    48.000     0.000     0.000     2.000
    13   1.014   -4.430    31.000    15.000     0.000     0.000     0.000
    14   1.000   -5.040    24.000    12.000     0.000     0.000     0.000
    15   0.991   -5.538    70.000    31.000     0.000     0.000     0.500
    16   0.983   -5.882    55.000    27.000     0.000     0.000     0.000
    17   0.987   -4.985    78.000    38.000     0.000     0.000     0.000
    18   1.007   -1.866   153.000    67.000     0.000     0.000     0.000
    19   1.004   -6.397    75.000    15.000     0.000     0.000     5.000
    20   0.980   -6.025    48.000    27.000     0.000     0.000     0.000
    21   0.977   -5.778    46.000    23.000     0.000     0.000     0.000
    22   0.978   -6.437    45.000    22.000     0.000     0.000     0.000
    23   0.976   -7.087    25.000    12.000     0.000     0.000     0.000
    24   0.968   -7.347    54.000    27.000     0.000     0.000     0.000
    25   0.974   -6.775    28.000    13.000     0.000     0.000     0.000
    26   1.015   -1.803    40.000    20.000    60.000    32.706     0.000
      
    Total                1263.000   637.000  1278.534   618.791    25.000


                           Line Flow and Losses 

     --Line--  Power at bus & line flow    --Line loss--  Transformer
     from  to    MW      Mvar     MVA       MW      Mvar      tap
   
     1        668.534  187.009  694.197
           2  361.714   65.048  367.516    0.709   -0.083
          18  306.821  121.962  330.172    1.368   -0.286
   
     2         57.000  110.355  124.206
           1 -361.004  -65.131  366.833    0.709   -0.083
           3  124.327   51.289  134.491    0.242   -2.504    0.960
           7   74.569   32.038   81.160    0.664    0.129
           8  140.946   39.740  146.441    1.549   -1.212
          13   69.940   50.451   86.238    0.244    1.231    0.960
          26    8.222    1.304    8.325    0.022    0.131
   
     3        -44.000   13.031   45.889
           2 -124.085  -53.792  135.243    0.242   -2.504
          13   80.086   66.826  104.304    0.074    0.473    1.017
   
     4         75.000   41.223   85.582
           8  -20.093   13.869   24.415    0.005    0.123    1.050
          12   95.094   27.509   98.993    0.158   -0.932    1.050
   
     5        250.000   99.466  269.060
           6  250.000   99.466  269.060    4.717   -0.179
   
     6        -76.000  -27.000   80.654
           5 -245.283  -99.645  264.750    4.717   -0.179
           7   37.578   10.327   38.972    0.082    0.258
          11   19.686    0.003   19.686    0.038    0.201
          18  -60.444  -27.091   66.238    0.164    0.733
          19  110.579   68.876  130.276    0.560    1.046    0.950
          21   61.883   20.045   65.048    0.217   -0.511
   
     7          0.000    0.000    0.000
           2  -73.904  -31.908   80.499    0.664    0.129
           6  -37.497  -10.069   38.825    0.082    0.258
           8   15.464  -46.719   49.212    0.029    0.150
           9   95.937   88.430  130.475    0.152    1.588    0.950
   
     8          0.000    0.000    0.000
           2 -139.397  -40.952  145.288    1.549   -1.212
           4   20.098  -13.746   24.349    0.005    0.123
           7  -15.434   46.869   49.345    0.029    0.150
          12  134.733    7.829  134.960    0.367   -0.652
   
     9        -89.000  -47.000  100.648
           7  -95.785  -86.842  129.292    0.152    1.588
          10    6.785   39.842   40.415    0.017    0.596
   
    10          0.000    0.000    0.000
           9   -6.769  -39.246   39.825    0.017    0.596
          12 -113.903   -6.527  114.090    0.328   -0.208
          19    4.477   -7.167    8.450    0.040    0.172
          20   60.732   28.213   66.966    0.303    0.541
          22   55.462   24.726   60.724    0.262    0.164
   
    11        -25.000  -13.500   28.412
           6  -19.648    0.199   19.649    0.038    0.201
          25   22.689    0.049   22.689    0.498   -0.542
          26  -28.040  -13.748   31.229    0.160    0.131
   
    12        -89.000  -46.000  100.185
           4  -94.935  -28.441   99.104    0.158   -0.932
           8 -134.366   -8.481  134.633    0.367   -0.652
          10  114.231    6.318  114.406    0.328   -0.208
          14    3.182  -10.651   11.116    0.041    0.101
          15   22.888   -4.744   23.375    0.100    0.332
   
    13        -31.000  -15.000   34.438
           2  -69.696  -49.221   85.324    0.244    1.231
           3  -80.012  -66.353  103.945    0.074    0.473
          14   46.932   41.955   62.951    0.178    0.845
          15   37.527   29.857   47.956    0.260    1.366
          16   34.248   28.762   44.723    0.350    1.535
   
    14        -24.000  -12.000   26.833
          12   -3.141   10.752   11.201    0.041    0.101
          13  -46.754  -41.110   62.258    0.178    0.845
          15   25.895   18.358   31.742    0.069    0.385
   
    15        -70.000  -30.500   76.356
          12  -22.788    5.076   23.347    0.100    0.332
          13  -37.268  -28.491   46.911    0.260    1.366
          14  -25.825  -17.974   31.464    0.069    0.385
          16   15.881   10.889   19.256    0.079    0.193
   
    16        -55.000  -27.000   61.270
          13  -33.898  -27.227   43.479    0.350    1.535
          15  -15.802  -10.696   19.082    0.079    0.193
          17  -10.082    9.232   13.670    0.192    0.116
          20    4.782    1.686    5.071    0.006    0.016
   
    17        -78.000  -38.000   86.764
          16   10.273   -9.116   13.735    0.192    0.116
          18  -91.547  -29.415   96.156    0.297   -1.991
          21    3.273    0.534    3.317    0.026    0.050
   
    18       -153.000  -67.000  167.027
           1 -305.452 -122.247  329.007    1.368   -0.286
           6   60.608   27.825   66.690    0.164    0.733
          17   91.844   27.423   95.851    0.297   -1.991
   
    19        -75.000  -10.000   75.664
           6 -110.020  -67.830  129.249    0.560    1.046
          10   -4.437    7.339    8.576    0.040    0.172
          23   13.111   17.902   22.190    0.147    0.640
          24   18.677   23.909   30.340    0.277    0.765
          25    7.669    8.680   11.582    0.167   -0.467
   
    20        -48.000  -27.000   55.073
          10  -60.429  -27.673   66.464    0.303    0.541
          16   -4.776   -1.670    5.059    0.006    0.016
          21   -1.549    2.590    3.018    0.006    0.015
          22   18.754   -0.247   18.756    0.055    0.134
   
    21        -46.000  -23.000   51.430
           6  -61.666  -20.556   65.002    0.217   -0.511
          17   -3.248   -0.484    3.283    0.026    0.050
          20    1.555   -2.575    3.008    0.006    0.015
          24   17.359    0.615   17.370    0.150    0.477
   
    22        -45.000  -22.000   50.090
          10  -55.200  -24.562   60.418    0.262    0.164
          20  -18.699    0.381   18.703    0.055    0.134
          23   10.391   -1.868   10.558    0.034    0.115
          24   18.508    4.049   18.945    0.116    0.330
   
    23        -25.000  -12.000   27.731
          19  -12.964  -17.262   21.588    0.147    0.640
          22  -10.357    1.984   10.546    0.034    0.115
          25   -1.678    3.278    3.683    0.014    0.017
   
    24        -54.000  -27.000   60.374
          19  -18.400  -23.144   29.567    0.277    0.765
          21  -17.208   -0.138   17.209    0.150    0.477
          22  -18.391   -3.718   18.763    0.116    0.330
   
    25        -28.000  -13.000   30.871
          11  -22.191   -0.591   22.198    0.498   -0.542
          19   -7.502   -9.147   11.830    0.167   -0.467
          23    1.692   -3.261    3.674    0.014    0.017
   
    26         20.000   12.706   23.695
           2   -8.201   -1.173    8.284    0.022    0.131
          11   28.201   13.879   31.431    0.160    0.131
   
    Total loss                            15.534    5.532
                   Power Flow Solution by Fast Decoupled Method
                      Maximum Power Mismatch = 8.40013e-05 
                             No. of Iterations = 26 

    Bus  Voltage  Angle    ------Load------    ---Generation---   Injected
    No.  Mag.     Degree     MW       Mvar       MW       Mvar       Mvar 
                                                                          
     1   1.025    0.000    51.000    41.000   719.534   224.009     4.000
     2   1.020   -0.931    22.000    15.000    79.000   125.355     0.000
     3   1.035   -4.213    64.000    50.000    20.000    63.031     0.000
     4   1.050   -3.582    25.000    10.000   100.000    49.223     2.000
     5   1.045    1.129    50.000    30.000   300.000   124.466     5.000
     6   0.999   -2.573    76.000    29.000     0.000     0.000     2.000
     7   0.994   -3.204     0.000     0.000     0.000     0.000     0.000
     8   0.997   -3.299     0.000     0.000     0.000     0.000     0.000
     9   1.009   -5.393    89.000    50.000     0.000     0.000     3.000
    10   0.989   -5.561     0.000     0.000     0.000     0.000     0.000
    11   0.997   -3.218    25.000    15.000     0.000     0.000     1.500
    12   0.993   -4.692    89.000    48.000     0.000     0.000     2.000
    13   1.014   -4.430    31.000    15.000     0.000     0.000     0.000
    14   1.000   -5.040    24.000    12.000     0.000     0.000     0.000
    15   0.991   -5.538    70.000    31.000     0.000     0.000     0.500
    16   0.983   -5.882    55.000    27.000     0.000     0.000     0.000
    17   0.987   -4.985    78.000    38.000     0.000     0.000     0.000
    18   1.007   -1.866   153.000    67.000     0.000     0.000     0.000
    19   1.004   -6.397    75.000    15.000     0.000     0.000     5.000
    20   0.980   -6.025    48.000    27.000     0.000     0.000     0.000
    21   0.977   -5.778    46.000    23.000     0.000     0.000     0.000
    22   0.978   -6.437    45.000    22.000     0.000     0.000     0.000
    23   0.976   -7.087    25.000    12.000     0.000     0.000     0.000
    24   0.968   -7.347    54.000    27.000     0.000     0.000     0.000
    25   0.974   -6.775    28.000    13.000     0.000     0.000     0.000
    26   1.015   -1.803    40.000    20.000    60.000    32.706     0.000
      
    Total                1263.000   637.000  1278.534   618.791    25.000


                           Line Flow and Losses 

     --Line--  Power at bus & line flow    --Line loss--  Transformer
     from  to    MW      Mvar     MVA       MW      Mvar      tap
   
     1        668.534  187.009  694.197
           2  361.714   65.048  367.516    0.709   -0.083
          18  306.821  121.962  330.172    1.368   -0.286
   
     2         57.000  110.355  124.206
           1 -361.004  -65.131  366.833    0.709   -0.083
           3  124.327   51.289  134.491    0.242   -2.504    0.960
           7   74.569   32.038   81.160    0.664    0.129
           8  140.946   39.740  146.441    1.549   -1.212
          13   69.940   50.451   86.238    0.244    1.231    0.960
          26    8.222    1.304    8.325    0.022    0.131
   
     3        -44.000   13.031   45.889
           2 -124.085  -53.792  135.243    0.242   -2.504
          13   80.086   66.826  104.304    0.074    0.473    1.017
   
     4         75.000   41.223   85.582
           8  -20.093   13.869   24.415    0.005    0.123    1.050
          12   95.094   27.509   98.993    0.158   -0.932    1.050
   
     5        250.000   99.466  269.060
           6  250.000   99.466  269.060    4.717   -0.179
   
     6        -76.000  -27.000   80.654
           5 -245.283  -99.645  264.750    4.717   -0.179
           7   37.578   10.327   38.972    0.082    0.258
          11   19.686    0.003   19.686    0.038    0.201
          18  -60.444  -27.091   66.238    0.164    0.733
          19  110.579   68.876  130.276    0.560    1.046    0.950
          21   61.883   20.045   65.048    0.217   -0.511
   
     7          0.000    0.000    0.000
           2  -73.904  -31.908   80.499    0.664    0.129
           6  -37.497  -10.069   38.825    0.082    0.258
           8   15.464  -46.719   49.212    0.029    0.150
           9   95.937   88.430  130.475    0.152    1.588    0.950
   
     8          0.000    0.000    0.000
           2 -139.397  -40.952  145.288    1.549   -1.212
           4   20.098  -13.746   24.349    0.005    0.123
           7  -15.434   46.869   49.345    0.029    0.150
          12  134.733    7.829  134.960    0.367   -0.652
   
     9        -89.000  -47.000  100.648
           7  -95.785  -86.842  129.292    0.152    1.588
          10    6.785   39.842   40.415    0.017    0.596
   
    10          0.000    0.000    0.000
           9   -6.769  -39.246   39.825    0.017    0.596
          12 -113.903   -6.527  114.090    0.328   -0.208
          19    4.477   -7.167    8.450    0.040    0.172
          20   60.732   28.213   66.966    0.303    0.541
          22   55.462   24.726   60.724    0.262    0.164
   
    11        -25.000  -13.500   28.412
           6  -19.648    0.199   19.649    0.038    0.201
          25   22.689    0.049   22.689    0.498   -0.542
          26  -28.040  -13.748   31.229    0.160    0.131
   
    12        -89.000  -46.000  100.185
           4  -94.935  -28.441   99.104    0.158   -0.932
           8 -134.366   -8.481  134.633    0.367   -0.652
          10  114.231    6.318  114.406    0.328   -0.208
          14    3.182  -10.651   11.116    0.041    0.101
          15   22.888   -4.744   23.375    0.100    0.332
   
    13        -31.000  -15.000   34.438
           2  -69.696  -49.221   85.324    0.244    1.231
           3  -80.012  -66.353  103.945    0.074    0.473
          14   46.932   41.955   62.951    0.178    0.845
          15   37.527   29.857   47.956    0.260    1.366
          16   34.248   28.762   44.723    0.350    1.535
   
    14        -24.000  -12.000   26.833
          12   -3.141   10.752   11.201    0.041    0.101
          13  -46.754  -41.110   62.258    0.178    0.845
          15   25.895   18.358   31.742    0.069    0.385
   
    15        -70.000  -30.500   76.356
          12  -22.788    5.076   23.347    0.100    0.332
          13  -37.268  -28.491   46.911    0.260    1.366
          14  -25.825  -17.974   31.464    0.069    0.385
          16   15.881   10.889   19.256    0.079    0.193
   
    16        -55.000  -27.000   61.270
          13  -33.898  -27.227   43.479    0.350    1.535
          15  -15.802  -10.696   19.082    0.079    0.193
          17  -10.082    9.232   13.670    0.192    0.116
          20    4.782    1.686    5.071    0.006    0.016
   
    17        -78.000  -38.000   86.764
          16   10.273   -9.116   13.735    0.192    0.116
          18  -91.547  -29.415   96.156    0.297   -1.991
          21    3.273    0.534    3.317    0.026    0.050
   
    18       -153.000  -67.000  167.027
           1 -305.452 -122.247  329.007    1.368   -0.286
           6   60.608   27.825   66.690    0.164    0.733
          17   91.844   27.423   95.851    0.297   -1.991
   
    19        -75.000  -10.000   75.664
           6 -110.020  -67.830  129.249    0.560    1.046
          10   -4.437    7.339    8.576    0.040    0.172
          23   13.111   17.902   22.190    0.147    0.640
          24   18.677   23.909   30.340    0.277    0.765
          25    7.669    8.680   11.582    0.167   -0.467
   
    20        -48.000  -27.000   55.073
          10  -60.429  -27.673   66.464    0.303    0.541
          16   -4.776   -1.670    5.059    0.006    0.016
          21   -1.549    2.590    3.018    0.006    0.015
          22   18.754   -0.247   18.756    0.055    0.134
   
    21        -46.000  -23.000   51.430
           6  -61.666  -20.556   65.002    0.217   -0.511
          17   -3.248   -0.484    3.283    0.026    0.050
          20    1.555   -2.575    3.008    0.006    0.015
          24   17.359    0.615   17.370    0.150    0.477
   
    22        -45.000  -22.000   50.090
          10  -55.200  -24.562   60.418    0.262    0.164
          20  -18.699    0.381   18.703    0.055    0.134
          23   10.391   -1.868   10.558    0.034    0.115
          24   18.508    4.049   18.945    0.116    0.330
   
    23        -25.000  -12.000   27.731
          19  -12.964  -17.262   21.588    0.147    0.640
          22  -10.357    1.984   10.546    0.034    0.115
          25   -1.678    3.278    3.683    0.014    0.017
   
    24        -54.000  -27.000   60.374
          19  -18.400  -23.144   29.567    0.277    0.765
          21  -17.208   -0.138   17.209    0.150    0.477
          22  -18.391   -3.718   18.763    0.116    0.330
   
    25        -28.000  -13.000   30.871
          11  -22.191   -0.591   22.198    0.498   -0.542
          19   -7.502   -9.147   11.830    0.167   -0.467
          23    1.692   -3.261    3.674    0.014    0.017
   
    26         20.000   12.706   23.695
           2   -8.201   -1.173    8.284    0.022    0.131
          11   28.201   13.879   31.431    0.160    0.131
   
    Total loss                            15.534    5.532
