Andika/MatLab/hw2-gauss-seidel.txt
                   Power Flow Solution by Gauss-Seidel Method
                      Maximum Power Mismatch = 8.70135e-05 
                             No. of Iterations = 37 

    Bus  Voltage  Angle    ------Load------    ---Generation---   Injected
    No.  Mag.     Degree     MW       Mvar       MW       Mvar       Mvar 
                                                                          
     1   1.025    0.000    51.000    41.000   719.536   224.003     4.000
     2   1.020   -0.931    22.000    15.000    79.000   125.355     0.000
     3   1.035   -4.213    64.000    50.000    20.000    62.976     0.000
     4   1.050   -3.582    25.000    10.000   100.000    49.226     2.000
     5   1.045    1.129    50.000    30.000   300.000   124.466     5.000
     6   0.999   -2.573    76.000    29.000     0.000     0.000     2.000
     7   0.994   -3.204     0.000     0.000     0.000     0.000     0.000
     8   0.997   -3.299     0.000     0.000     0.000     0.000     0.000
     9   1.009   -5.393    89.000    50.000     0.000     0.000     3.000
    10   0.989   -5.561     0.000     0.000     0.000     0.000     0.000
    11   0.997   -3.218    25.000    15.000     0.000     0.000     1.500
    12   0.993   -4.692    89.000    48.000     0.000     0.000     2.000
    13   1.014   -4.430    31.000    15.000     0.000     0.000     0.000
    14   1.000   -5.040    24.000    12.000     0.000     0.000     0.000
    15   0.991   -5.538    70.000    31.000     0.000     0.000     0.500
    16   0.983   -5.882    55.000    27.000     0.000     0.000     0.000
    17   0.987   -4.985    78.000    38.000     0.000     0.000     0.000
    18   1.007   -1.866   153.000    67.000     0.000     0.000     0.000
    19   1.004   -6.397    75.000    15.000     0.000     0.000     5.000
    20   0.980   -6.025    48.000    27.000     0.000     0.000     0.000
    21   0.977   -5.778    46.000    23.000     0.000     0.000     0.000
    22   0.978   -6.437    45.000    22.000     0.000     0.000     0.000
    23   0.976   -7.087    25.000    12.000     0.000     0.000     0.000
    24   0.968   -7.347    54.000    27.000     0.000     0.000     0.000
    25   0.974   -6.775    28.000    13.000     0.000     0.000     0.000
    26   1.015   -1.803    40.000    20.000    60.000    32.706     0.000
      
    Total                1263.000   637.000  1278.536   618.731    25.000


                           Line Flow and Losses 

     --Line--  Power at bus & line flow    --Line loss--  Transformer
     from  to    MW      Mvar     MVA       MW      Mvar      tap
   
     1        668.536  187.003  694.198
           2  361.712   65.048  367.514    0.709   -0.083
          18  306.821  121.968  330.175    1.368   -0.286
   
     2         57.000  110.355  124.206
           1 -361.002  -65.131  366.831    0.709   -0.083
           3  124.328   51.288  134.491    0.242   -2.504    0.960
           7   74.569   32.038   81.160    0.664    0.129
           8  140.946   39.739  146.441    1.549   -1.212
          13   69.940   50.453   86.239    0.244    1.231    0.960
          26    8.222    1.304    8.325    0.022    0.131
   
     3        -44.000   12.976   45.873
           2 -124.086  -53.792  135.244    0.242   -2.504
          13   80.084   66.854  104.321    0.074    0.473    1.017
   
     4         75.000   41.226   85.584
           8  -20.093   13.867   24.414    0.005    0.123    1.050
          12   95.094   27.508   98.993    0.158   -0.932    1.050
   
     5        250.000   99.466  269.060
           6  249.997   99.466  269.058    4.717   -0.179
   
     6        -76.000  -27.000   80.654
           5 -245.280  -99.645  264.748    4.717   -0.179
           7   37.579   10.328   38.972    0.082    0.258
          11   19.686    0.002   19.686    0.038    0.201
          18  -60.442  -27.088   66.235    0.164    0.733
          19  110.579   68.877  130.276    0.560    1.046    0.950
          21   61.884   20.044   65.049    0.217   -0.511
   
     7          0.000    0.000    0.000
           2  -73.905  -31.908   80.499    0.664    0.129
           6  -37.497  -10.070   38.826    0.082    0.258
           8   15.462  -46.725   49.217    0.029    0.150
           9   95.937   88.437  130.480    0.152    1.589    0.950
   
     8          0.000    0.000    0.000
           2 -139.396  -40.951  145.287    1.549   -1.212
           4   20.098  -13.744   24.348    0.005    0.123
           7  -15.433   46.875   49.350    0.029    0.150
          12  134.733    7.830  134.961    0.367   -0.652
   
     9        -89.000  -47.000  100.648
           7  -95.785  -86.849  129.296    0.152    1.589
          10    6.786   39.835   40.409    0.017    0.596
   
    10          0.000    0.000    0.000
           9   -6.769  -39.239   39.819    0.017    0.596
          12 -113.904   -6.527  114.091    0.328   -0.208
          19    4.477   -7.166    8.450    0.040    0.172
          20   60.734   28.216   66.968    0.303    0.541
          22   55.460   24.727   60.723    0.262    0.164
   
    11        -25.000  -13.500   28.412
           6  -19.649    0.200   19.650    0.038    0.201
          25   22.689    0.049   22.689    0.498   -0.542
          26  -28.040  -13.747   31.229    0.160    0.131
   
    12        -89.000  -46.000  100.185
           4  -94.936  -28.440   99.104    0.158   -0.932
           8 -134.366   -8.483  134.634    0.367   -0.652
          10  114.232    6.318  114.407    0.328   -0.208
          14    3.182  -10.652   11.117    0.041    0.101
          15   22.890   -4.745   23.376    0.100    0.332
   
    13        -31.000  -15.000   34.438
           2  -69.696  -49.222   85.325    0.244    1.231
           3  -80.010  -66.381  103.962    0.074    0.473
          14   46.932   41.949   62.947    0.178    0.845
          15   37.529   29.854   47.955    0.260    1.366
          16   34.247   28.761   44.722    0.350    1.535
   
    14        -24.000  -12.000   26.833
          12   -3.141   10.752   11.202    0.041    0.101
          13  -46.754  -41.104   62.253    0.178    0.845
          15   25.897   18.358   31.744    0.069    0.385
   
    15        -70.000  -30.500   76.356
          12  -22.790    5.077   23.348    0.100    0.332
          13  -37.269  -28.488   46.910    0.260    1.366
          14  -25.827  -17.973   31.466    0.069    0.385
          16   15.878   10.892   19.255    0.079    0.193
   
    16        -55.000  -27.000   61.270
          13  -33.897  -27.226   43.477    0.350    1.535
          15  -15.799  -10.698   19.081    0.079    0.193
          17  -10.080    9.231   13.668    0.192    0.116
          20    4.784    1.685    5.072    0.006    0.016
   
    17        -78.000  -38.000   86.764
          16   10.271   -9.115   13.732    0.192    0.116
          18  -91.549  -29.417   96.159    0.297   -1.991
          21    3.273    0.533    3.316    0.026    0.050
   
    18       -153.000  -67.000  167.027
           1 -305.452 -122.254  329.009    1.368   -0.286
           6   60.607   27.821   66.687    0.164    0.733
          17   91.845   27.426   95.853    0.297   -1.991
   
    19        -75.000  -10.000   75.664
           6 -110.020  -67.830  129.249    0.560    1.046
          10   -4.437    7.339    8.576    0.040    0.172
          23   13.111   17.902   22.190    0.147    0.640
          24   18.678   23.909   30.340    0.277    0.765
          25    7.669    8.680   11.582    0.167   -0.467
   
    20        -48.000  -27.000   55.073
          10  -60.431  -27.675   66.466    0.303    0.541
          16   -4.778   -1.670    5.061    0.006    0.016
          21   -1.549    2.590    3.017    0.006    0.015
          22   18.752   -0.247   18.754    0.055    0.134
   
    21        -46.000  -23.000   51.430
           6  -61.667  -20.555   65.003    0.217   -0.511
          17   -3.247   -0.483    3.283    0.026    0.050
          20    1.555   -2.575    3.008    0.006    0.015
          24   17.359    0.616   17.369    0.150    0.477
   
    22        -45.000  -22.000   50.090
          10  -55.198  -24.563   60.417    0.262    0.164
          20  -18.697    0.381   18.701    0.055    0.134
          23   10.392   -1.868   10.558    0.034    0.115
          24   18.508    4.048   18.946    0.116    0.331
   
    23        -25.000  -12.000   27.731
          19  -12.965  -17.262   21.588    0.147    0.640
          22  -10.358    1.983   10.546    0.034    0.115
          25   -1.679    3.278    3.683    0.014    0.017
   
    24        -54.000  -27.000   60.374
          19  -18.401  -23.144   29.567    0.277    0.765
          21  -17.208   -0.139   17.209    0.150    0.477
          22  -18.392   -3.718   18.764    0.116    0.331
   
    25        -28.000  -13.000   30.871
          11  -22.191   -0.591   22.198    0.498   -0.542
          19   -7.502   -9.147   11.830    0.167   -0.467
          23    1.693   -3.261    3.674    0.014    0.017
   
    26         20.000   12.706   23.695
           2   -8.201   -1.173    8.284    0.022    0.131
          11   28.201   13.878   31.430    0.160    0.131
   
    Total loss                            15.534    5.532
                   Power Flow Solution by Gauss-Seidel Method
                      Maximum Power Mismatch = 8.70135e-05 
                             No. of Iterations = 37 

    Bus  Voltage  Angle    ------Load------    ---Generation---   Injected
    No.  Mag.     Degree     MW       Mvar       MW       Mvar       Mvar 
                                                                          
     1   1.025    0.000    51.000    41.000   719.536   224.003     4.000
     2   1.020   -0.931    22.000    15.000    79.000   125.355     0.000
     3   1.035   -4.213    64.000    50.000    20.000    62.976     0.000
     4   1.050   -3.582    25.000    10.000   100.000    49.226     2.000
     5   1.045    1.129    50.000    30.000   300.000   124.466     5.000
     6   0.999   -2.573    76.000    29.000     0.000     0.000     2.000
     7   0.994   -3.204     0.000     0.000     0.000     0.000     0.000
     8   0.997   -3.299     0.000     0.000     0.000     0.000     0.000
     9   1.009   -5.393    89.000    50.000     0.000     0.000     3.000
    10   0.989   -5.561     0.000     0.000     0.000     0.000     0.000
    11   0.997   -3.218    25.000    15.000     0.000     0.000     1.500
    12   0.993   -4.692    89.000    48.000     0.000     0.000     2.000
    13   1.014   -4.430    31.000    15.000     0.000     0.000     0.000
    14   1.000   -5.040    24.000    12.000     0.000     0.000     0.000
    15   0.991   -5.538    70.000    31.000     0.000     0.000     0.500
    16   0.983   -5.882    55.000    27.000     0.000     0.000     0.000
    17   0.987   -4.985    78.000    38.000     0.000     0.000     0.000
    18   1.007   -1.866   153.000    67.000     0.000     0.000     0.000
    19   1.004   -6.397    75.000    15.000     0.000     0.000     5.000
    20   0.980   -6.025    48.000    27.000     0.000     0.000     0.000
    21   0.977   -5.778    46.000    23.000     0.000     0.000     0.000
    22   0.978   -6.437    45.000    22.000     0.000     0.000     0.000
    23   0.976   -7.087    25.000    12.000     0.000     0.000     0.000
    24   0.968   -7.347    54.000    27.000     0.000     0.000     0.000
    25   0.974   -6.775    28.000    13.000     0.000     0.000     0.000
    26   1.015   -1.803    40.000    20.000    60.000    32.706     0.000
      
    Total                1263.000   637.000  1278.536   618.731    25.000


                           Line Flow and Losses 

     --Line--  Power at bus & line flow    --Line loss--  Transformer
     from  to    MW      Mvar     MVA       MW      Mvar      tap
   
     1        668.536  187.003  694.198
           2  361.712   65.048  367.514    0.709   -0.083
          18  306.821  121.968  330.175    1.368   -0.286
   
     2         57.000  110.355  124.206
           1 -361.002  -65.131  366.831    0.709   -0.083
           3  124.328   51.288  134.491    0.242   -2.504    0.960
           7   74.569   32.038   81.160    0.664    0.129
           8  140.946   39.739  146.441    1.549   -1.212
          13   69.940   50.453   86.239    0.244    1.231    0.960
          26    8.222    1.304    8.325    0.022    0.131
   
     3        -44.000   12.976   45.873
           2 -124.086  -53.792  135.244    0.242   -2.504
          13   80.084   66.854  104.321    0.074    0.473    1.017
   
     4         75.000   41.226   85.584
           8  -20.093   13.867   24.414    0.005    0.123    1.050
          12   95.094   27.508   98.993    0.158   -0.932    1.050
   
     5        250.000   99.466  269.060
           6  249.997   99.466  269.058    4.717   -0.179
   
     6        -76.000  -27.000   80.654
           5 -245.280  -99.645  264.748    4.717   -0.179
           7   37.579   10.328   38.972    0.082    0.258
          11   19.686    0.002   19.686    0.038    0.201
          18  -60.442  -27.088   66.235    0.164    0.733
          19  110.579   68.877  130.276    0.560    1.046    0.950
          21   61.884   20.044   65.049    0.217   -0.511
   
     7          0.000    0.000    0.000
           2  -73.905  -31.908   80.499    0.664    0.129
           6  -37.497  -10.070   38.826    0.082    0.258
           8   15.462  -46.725   49.217    0.029    0.150
           9   95.937   88.437  130.480    0.152    1.589    0.950
   
     8          0.000    0.000    0.000
           2 -139.396  -40.951  145.287    1.549   -1.212
           4   20.098  -13.744   24.348    0.005    0.123
           7  -15.433   46.875   49.350    0.029    0.150
          12  134.733    7.830  134.961    0.367   -0.652
   
     9        -89.000  -47.000  100.648
           7  -95.785  -86.849  129.296    0.152    1.589
          10    6.786   39.835   40.409    0.017    0.596
   
    10          0.000    0.000    0.000
           9   -6.769  -39.239   39.819    0.017    0.596
          12 -113.904   -6.527  114.091    0.328   -0.208
          19    4.477   -7.166    8.450    0.040    0.172
          20   60.734   28.216   66.968    0.303    0.541
          22   55.460   24.727   60.723    0.262    0.164
   
    11        -25.000  -13.500   28.412
           6  -19.649    0.200   19.650    0.038    0.201
          25   22.689    0.049   22.689    0.498   -0.542
          26  -28.040  -13.747   31.229    0.160    0.131
   
    12        -89.000  -46.000  100.185
           4  -94.936  -28.440   99.104    0.158   -0.932
           8 -134.366   -8.483  134.634    0.367   -0.652
          10  114.232    6.318  114.407    0.328   -0.208
          14    3.182  -10.652   11.117    0.041    0.101
          15   22.890   -4.745   23.376    0.100    0.332
   
    13        -31.000  -15.000   34.438
           2  -69.696  -49.222   85.325    0.244    1.231
           3  -80.010  -66.381  103.962    0.074    0.473
          14   46.932   41.949   62.947    0.178    0.845
          15   37.529   29.854   47.955    0.260    1.366
          16   34.247   28.761   44.722    0.350    1.535
   
    14        -24.000  -12.000   26.833
          12   -3.141   10.752   11.202    0.041    0.101
          13  -46.754  -41.104   62.253    0.178    0.845
          15   25.897   18.358   31.744    0.069    0.385
   
    15        -70.000  -30.500   76.356
          12  -22.790    5.077   23.348    0.100    0.332
          13  -37.269  -28.488   46.910    0.260    1.366
          14  -25.827  -17.973   31.466    0.069    0.385
          16   15.878   10.892   19.255    0.079    0.193
   
    16        -55.000  -27.000   61.270
          13  -33.897  -27.226   43.477    0.350    1.535
          15  -15.799  -10.698   19.081    0.079    0.193
          17  -10.080    9.231   13.668    0.192    0.116
          20    4.784    1.685    5.072    0.006    0.016
   
    17        -78.000  -38.000   86.764
          16   10.271   -9.115   13.732    0.192    0.116
          18  -91.549  -29.417   96.159    0.297   -1.991
          21    3.273    0.533    3.316    0.026    0.050
   
    18       -153.000  -67.000  167.027
           1 -305.452 -122.254  329.009    1.368   -0.286
           6   60.607   27.821   66.687    0.164    0.733
          17   91.845   27.426   95.853    0.297   -1.991
   
    19        -75.000  -10.000   75.664
           6 -110.020  -67.830  129.249    0.560    1.046
          10   -4.437    7.339    8.576    0.040    0.172
          23   13.111   17.902   22.190    0.147    0.640
          24   18.678   23.909   30.340    0.277    0.765
          25    7.669    8.680   11.582    0.167   -0.467
   
    20        -48.000  -27.000   55.073
          10  -60.431  -27.675   66.466    0.303    0.541
          16   -4.778   -1.670    5.061    0.006    0.016
          21   -1.549    2.590    3.017    0.006    0.015
          22   18.752   -0.247   18.754    0.055    0.134
   
    21        -46.000  -23.000   51.430
           6  -61.667  -20.555   65.003    0.217   -0.511
          17   -3.247   -0.483    3.283    0.026    0.050
          20    1.555   -2.575    3.008    0.006    0.015
          24   17.359    0.616   17.369    0.150    0.477
   
    22        -45.000  -22.000   50.090
          10  -55.198  -24.563   60.417    0.262    0.164
          20  -18.697    0.381   18.701    0.055    0.134
          23   10.392   -1.868   10.558    0.034    0.115
          24   18.508    4.048   18.946    0.116    0.331
   
    23        -25.000  -12.000   27.731
          19  -12.965  -17.262   21.588    0.147    0.640
          22  -10.358    1.983   10.546    0.034    0.115
          25   -1.679    3.278    3.683    0.014    0.017
   
    24        -54.000  -27.000   60.374
          19  -18.401  -23.144   29.567    0.277    0.765
          21  -17.208   -0.139   17.209    0.150    0.477
          22  -18.392   -3.718   18.764    0.116    0.331
   
    25        -28.000  -13.000   30.871
          11  -22.191   -0.591   22.198    0.498   -0.542
          19   -7.502   -9.147   11.830    0.167   -0.467
          23    1.693   -3.261    3.674    0.014    0.017
   
    26         20.000   12.706   23.695
           2   -8.201   -1.173    8.284    0.022    0.131
          11   28.201   13.878   31.430    0.160    0.131
   
    Total loss                            15.534    5.532
                   Power Flow Solution by Gauss-Seidel Method
                      Maximum Power Mismatch = 8.70135e-05 
                             No. of Iterations = 37 

    Bus  Voltage  Angle    ------Load------    ---Generation---   Injected
    No.  Mag.     Degree     MW       Mvar       MW       Mvar       Mvar 
                                                                          
     1   1.025    0.000    51.000    41.000   719.536   224.003     4.000
     2   1.020   -0.931    22.000    15.000    79.000   125.355     0.000
     3   1.035   -4.213    64.000    50.000    20.000    62.976     0.000
     4   1.050   -3.582    25.000    10.000   100.000    49.226     2.000
     5   1.045    1.129    50.000    30.000   300.000   124.466     5.000
     6   0.999   -2.573    76.000    29.000     0.000     0.000     2.000
     7   0.994   -3.204     0.000     0.000     0.000     0.000     0.000
     8   0.997   -3.299     0.000     0.000     0.000     0.000     0.000
     9   1.009   -5.393    89.000    50.000     0.000     0.000     3.000
    10   0.989   -5.561     0.000     0.000     0.000     0.000     0.000
    11   0.997   -3.218    25.000    15.000     0.000     0.000     1.500
    12   0.993   -4.692    89.000    48.000     0.000     0.000     2.000
    13   1.014   -4.430    31.000    15.000     0.000     0.000     0.000
    14   1.000   -5.040    24.000    12.000     0.000     0.000     0.000
    15   0.991   -5.538    70.000    31.000     0.000     0.000     0.500
    16   0.983   -5.882    55.000    27.000     0.000     0.000     0.000
    17   0.987   -4.985    78.000    38.000     0.000     0.000     0.000
    18   1.007   -1.866   153.000    67.000     0.000     0.000     0.000
    19   1.004   -6.397    75.000    15.000     0.000     0.000     5.000
    20   0.980   -6.025    48.000    27.000     0.000     0.000     0.000
    21   0.977   -5.778    46.000    23.000     0.000     0.000     0.000
    22   0.978   -6.437    45.000    22.000     0.000     0.000     0.000
    23   0.976   -7.087    25.000    12.000     0.000     0.000     0.000
    24   0.968   -7.347    54.000    27.000     0.000     0.000     0.000
    25   0.974   -6.775    28.000    13.000     0.000     0.000     0.000
    26   1.015   -1.803    40.000    20.000    60.000    32.706     0.000
      
    Total                1263.000   637.000  1278.536   618.731    25.000


                           Line Flow and Losses 

     --Line--  Power at bus & line flow    --Line loss--  Transformer
     from  to    MW      Mvar     MVA       MW      Mvar      tap
   
     1        668.536  187.003  694.198
           2  361.712   65.048  367.514    0.709   -0.083
          18  306.821  121.968  330.175    1.368   -0.286
   
     2         57.000  110.355  124.206
           1 -361.002  -65.131  366.831    0.709   -0.083
           3  124.328   51.288  134.491    0.242   -2.504    0.960
           7   74.569   32.038   81.160    0.664    0.129
           8  140.946   39.739  146.441    1.549   -1.212
          13   69.940   50.453   86.239    0.244    1.231    0.960
          26    8.222    1.304    8.325    0.022    0.131
   
     3        -44.000   12.976   45.873
           2 -124.086  -53.792  135.244    0.242   -2.504
          13   80.084   66.854  104.321    0.074    0.473    1.017
   
     4         75.000   41.226   85.584
           8  -20.093   13.867   24.414    0.005    0.123    1.050
          12   95.094   27.508   98.993    0.158   -0.932    1.050
   
     5        250.000   99.466  269.060
           6  249.997   99.466  269.058    4.717   -0.179
   
     6        -76.000  -27.000   80.654
           5 -245.280  -99.645  264.748    4.717   -0.179
           7   37.579   10.328   38.972    0.082    0.258
          11   19.686    0.002   19.686    0.038    0.201
          18  -60.442  -27.088   66.235    0.164    0.733
          19  110.579   68.877  130.276    0.560    1.046    0.950
          21   61.884   20.044   65.049    0.217   -0.511
   
     7          0.000    0.000    0.000
           2  -73.905  -31.908   80.499    0.664    0.129
           6  -37.497  -10.070   38.826    0.082    0.258
           8   15.462  -46.725   49.217    0.029    0.150
           9   95.937   88.437  130.480    0.152    1.589    0.950
   
     8          0.000    0.000    0.000
           2 -139.396  -40.951  145.287    1.549   -1.212
           4   20.098  -13.744   24.348    0.005    0.123
           7  -15.433   46.875   49.350    0.029    0.150
          12  134.733    7.830  134.961    0.367   -0.652
   
     9        -89.000  -47.000  100.648
           7  -95.785  -86.849  129.296    0.152    1.589
          10    6.786   39.835   40.409    0.017    0.596
   
    10          0.000    0.000    0.000
           9   -6.769  -39.239   39.819    0.017    0.596
          12 -113.904   -6.527  114.091    0.328   -0.208
          19    4.477   -7.166    8.450    0.040    0.172
          20   60.734   28.216   66.968    0.303    0.541
          22   55.460   24.727   60.723    0.262    0.164
   
    11        -25.000  -13.500   28.412
           6  -19.649    0.200   19.650    0.038    0.201
          25   22.689    0.049   22.689    0.498   -0.542
          26  -28.040  -13.747   31.229    0.160    0.131
   
    12        -89.000  -46.000  100.185
           4  -94.936  -28.440   99.104    0.158   -0.932
           8 -134.366   -8.483  134.634    0.367   -0.652
          10  114.232    6.318  114.407    0.328   -0.208
          14    3.182  -10.652   11.117    0.041    0.101
          15   22.890   -4.745   23.376    0.100    0.332
   
    13        -31.000  -15.000   34.438
           2  -69.696  -49.222   85.325    0.244    1.231
           3  -80.010  -66.381  103.962    0.074    0.473
          14   46.932   41.949   62.947    0.178    0.845
          15   37.529   29.854   47.955    0.260    1.366
          16   34.247   28.761   44.722    0.350    1.535
   
    14        -24.000  -12.000   26.833
          12   -3.141   10.752   11.202    0.041    0.101
          13  -46.754  -41.104   62.253    0.178    0.845
          15   25.897   18.358   31.744    0.069    0.385
   
    15        -70.000  -30.500   76.356
          12  -22.790    5.077   23.348    0.100    0.332
          13  -37.269  -28.488   46.910    0.260    1.366
          14  -25.827  -17.973   31.466    0.069    0.385
          16   15.878   10.892   19.255    0.079    0.193
   
    16        -55.000  -27.000   61.270
          13  -33.897  -27.226   43.477    0.350    1.535
          15  -15.799  -10.698   19.081    0.079    0.193
          17  -10.080    9.231   13.668    0.192    0.116
          20    4.784    1.685    5.072    0.006    0.016
   
    17        -78.000  -38.000   86.764
          16   10.271   -9.115   13.732    0.192    0.116
          18  -91.549  -29.417   96.159    0.297   -1.991
          21    3.273    0.533    3.316    0.026    0.050
   
    18       -153.000  -67.000  167.027
           1 -305.452 -122.254  329.009    1.368   -0.286
           6   60.607   27.821   66.687    0.164    0.733
          17   91.845   27.426   95.853    0.297   -1.991
   
    19        -75.000  -10.000   75.664
           6 -110.020  -67.830  129.249    0.560    1.046
          10   -4.437    7.339    8.576    0.040    0.172
          23   13.111   17.902   22.190    0.147    0.640
          24   18.678   23.909   30.340    0.277    0.765
          25    7.669    8.680   11.582    0.167   -0.467
   
    20        -48.000  -27.000   55.073
          10  -60.431  -27.675   66.466    0.303    0.541
          16   -4.778   -1.670    5.061    0.006    0.016
          21   -1.549    2.590    3.017    0.006    0.015
          22   18.752   -0.247   18.754    0.055    0.134
   
    21        -46.000  -23.000   51.430
           6  -61.667  -20.555   65.003    0.217   -0.511
          17   -3.247   -0.483    3.283    0.026    0.050
          20    1.555   -2.575    3.008    0.006    0.015
          24   17.359    0.616   17.369    0.150    0.477
   
    22        -45.000  -22.000   50.090
          10  -55.198  -24.563   60.417    0.262    0.164
          20  -18.697    0.381   18.701    0.055    0.134
          23   10.392   -1.868   10.558    0.034    0.115
          24   18.508    4.048   18.946    0.116    0.331
   
    23        -25.000  -12.000   27.731
          19  -12.965  -17.262   21.588    0.147    0.640
          22  -10.358    1.983   10.546    0.034    0.115
          25   -1.679    3.278    3.683    0.014    0.017
   
    24        -54.000  -27.000   60.374
          19  -18.401  -23.144   29.567    0.277    0.765
          21  -17.208   -0.139   17.209    0.150    0.477
          22  -18.392   -3.718   18.764    0.116    0.331
   
    25        -28.000  -13.000   30.871
          11  -22.191   -0.591   22.198    0.498   -0.542
          19   -7.502   -9.147   11.830    0.167   -0.467
          23    1.693   -3.261    3.674    0.014    0.017
   
    26         20.000   12.706   23.695
           2   -8.201   -1.173    8.284    0.022    0.131
          11   28.201   13.878   31.430    0.160    0.131
   
    Total loss                            15.534    5.532
